LAMMPS (11 Aug 2017)
# LAMMPS

### OPTION VARIABLES ###

variable runtime string "24:00:30"
variable rnd_seed equal 68093
variable DEBUG equal 0

#@ General options
variable units string "lj"
variable npx equal 2
variable npy equal 1
variable npz equal 2

variable cpl_dy equal 10
variable sig equal 1.0
variable wall_ncx equal 20
variable wall_ncz equal 20
variable wall_ncy equal 3
variable wall_den equal 1.0
variable wall_latt_param equal (4/v_wall_den)^(1/3.0)  # For an FCC->N=4
variable Ly equal 6.0*10
variable Lx equal v_wall_ncx*1.5874010519682
variable Lz equal v_wall_ncz*1.5874010519682

#@ Equilibration
# TODO:MOdified when restarted
variable equilibration_mode string "manual" 		#manual|automatic|restart
variable T0_eq equal 1.1
variable thermo_type_eq string "langevin" 			#nose-hoover|langevin
variable barostat_mode_eq string "none" 		#pressure | none
variable barostat_value_eq equal 3
variable timestep_eq equal 0.005
variable steps_eq equal 2000
# TODO:MOdified when restarted
variable restart_step_eq equal 0
variable dump_trajectories_eq string "yes"

#@ Nemd
variable nemd_mode string "manual"
variable T0_nemd equal 1.1
variable thermo_type_nemd string "langevin" 		#nose-hoover|langevin
variable thermo_region_nemd string "wall"
variable thermo_region_percent_nemd equal 30
variable barostat_type_nemd string "none"   #pressure|volume-fixed
variable timestep_nemd equal 0.005
variable restart_step_nemd equal 0
variable dump_trajectories_nemd string "yes"
variable binning_mode string "B1D"
variable wall_velocity_mode string "velocity_feedback"
variable wall_velocity_value equal 0.0

# Processor decomposition
processors 2 1 2
units		lj
atom_style	atomic
boundary p f p

# Simulation time available
timer timeout 24:00:30 every 10
New timer settings: style=normal  mode=nosync  timeout=00:00:30

region	boxregion block 0 31.748021039364 0 60 0 31.748021039364 units box
create_box 2 boxregion
Created orthogonal box = (0 0 0) to (31.748 60 31.748)

# Wall definition (in lattice units)
variable    wall_area equal lx*lz
variable    wallbot equal 2*1
variable    walltop equal v_wallbot+v_wall_ncy*1.5874010519682
lattice fcc 1
Lattice spacing in x,y,z = 1.5874 1.5874 1.5874
region wallregion block 0.0 EDGE 2 6.7622031559046 0.0 EDGE units box
create_atoms 2 region wallregion units box
Created 4800 atoms
group wallgroup region wallregion
4800 atoms in group wallgroup

# Fluid definition (in box units)
variable density equal 0.81
variable fluid_gap equal 1
variable fluidbot equal bound(wallgroup,ymax)+1
variable fluidtop equal ly-1
region fluidregion block 0.0 EDGE 7.3496042078728 59 0.0 EDGE units box
variable no_fluid_atoms equal round(0.81*1007.9368399159*(59-7.3496042078728+$(v_fluid_gap)))
variable no_fluid_atoms equal round(0.81*1007.9368399159*(59-7.3496042078728+1))

# Create atoms
create_atoms 1 random 42985 68093 fluidregion units box
Created 42985 atoms
group fluidgroup region fluidregion
42985 atoms in group fluidgroup

# Thermostat location
variable thermo_bot equal 2
variable thermo_ncy equal 2
variable thermo_top equal 2+2*1.5874010519682
region thermoregion block 0.0 EDGE 2 5.1748021039364 0.0 EDGE units box

# Barostat location
variable 	barostat_ncy equal 1
variable    barostat_bot equal 2
variable 	barostat_top equal 2+1*1.5874010519682
region barostatregion block 0.0 EDGE 2 3.5874010519682 0.0 EDGE units box

# Create groups
group thermogroup region thermoregion
3200 atoms in group thermogroup
group barostatgroup region barostatregion
1600 atoms in group barostatgroup
group no_thermo_group subtract all thermogroup
44585 atoms in group no_thermo_group

# Reflecting wall at the top and bottom
fix uplowpecular all wall/reflect ylo EDGE yhi EDGE

# Masses
mass 1 1.0
mass 2 1.0

# Interactions
pair_style	lj/cut 2.2
pair_coeff	1 1 1.0 1 $(2.2+v_sig-1.0)
pair_coeff	1 1 1.0 1 2.2000000000000001776
pair_coeff	2 2 4.0 1.0 2.2

# Neighbor lists
neighbor 0.3 bin
neigh_modify delay 0 every 1 check yes

dump d0 all image 1 dump*_all.ppm type type up 0 1 0 zoom 2.0 box no 0.02
dump d1 thermogroup image 1 dump*_thermo.ppm type type up 0 1 0 zoom 2.0
dump d2 thermogroup image 1 dump*_barostat.ppm type type up 0 1 0 zoom 2.0
dump_modify d1 acolor 2 coral
dump_modify d2 acolor 2 green
# dump_modify d1
run 1
  update every 1 steps, delay 0 steps, check yes
Step Temp E_pair E_mol TotEng Press
0            0 1.1039784e+15            0 1.1039784e+15 3.489214e+15
Loop time of 0.150045 on 4 procs for 1 steps with 47785 atoms

reset_timestep 0
undump d0
undump d1
undump d2

# Minimization
minimize 1.0e-4 1.0e-6 100000 1000000
Step Temp E_pair E_mol TotEng Press
0            0 1.1039784e+15            0 1.1039784e+15 3.489214e+15
Loop time of 13.2528 on 4 procs for 374 steps with 47785 atoms

Minimization stats:
  Stopping criterion = energy tolerance
  Energy initial, next-to-last, final =
  Force two-norm initial, final = 2.47577e+22 214.978
  Force max component initial, final = 1.46471e+22 14.2482
  Final line search alpha, max atom move = 0.00222697 0.0317303
  Iterations, force evaluations = 374 639

write_restart restart.minimiz.*.mpiio
reset_timestep 0

# Initial conditions
velocity all create 1.1 68093 loop geom
variable no_barostat_atoms equal count(barostatgroup)
variable top_wall_ycoord equal bound(wallgroup,ymax)
variable control_slab_centre equal (ly-2*1)/2.0+v_top_wall_ycoord+2*1
variable control_slab_width equal 10
variable control_slab_ybot equal v_control_slab_centre-10/2.0
variable control_slab_ytop equal v_control_slab_centre+10/2.0
variable control_slab_vol equal 10*lx*lz
region controlslabregion block 0.0 EDGE 33.968845032551 43.968845032551  0.0 EDGE units box
group controlslabgroup dynamic fluidgroup region controlslabregion
dynamic group controlslabgroup defined
variable control_slab_density equal mass(controlslabgroup)/10079.368399159
variable fluid_width equal ly-v_top_wall_ycoord
variable fluid_vol equal (ly-v_top_wall_ycoord)*1007.9368399159

# Temperature computations
compute system_temp all temp/com
compute fluid_temp fluidgroup temp/com
compute wall_temp wallgroup temp/com

# Compute pressure/stress

# Control slab
compute stress controlslabgroup stress/atom fluid_temp
compute stress_sum controlslabgroup reduce sum c_stress[1] c_stress[2] c_stress[3]
variable control_slab_press equal -(c_stress_sum[1]+c_stress_sum[2]+c_stress_sum[3])/(3*v_control_slab_vol)

#Fluid slab
compute stress_2 fluidgroup stress/atom fluid_temp
variable kk atom (c_stress_2[1]+c_stress_2[2]+c_stress_2[3])/(3*1*v_wall_area)
compute stress_sum_2 fluidgroup reduce sum c_stress_2[1] c_stress_2[2] c_stress_2[3]
variable fluid_press equal -(c_stress_sum_2[1]+c_stress_sum_2[2]+c_stress_sum_2[3])/(3*v_fluid_vol)

# Barostating during equilibration
fix barostat_fix wallgroup spring/self 100.0 xyz

# Thermostating during equilibration
fix thermostat_fix all langevin 1.1 1.1 100.0 68093
fix nve_fix all nve

# Fields computations
compute fieldcompute_eq fluidgroup chunk/atom bin/3d x lower $(lx) y lower $(2*v_sig) z lower $(lz) units box
compute fieldcompute_eq fluidgroup chunk/atom bin/3d x lower 31.748021039364001439 y lower $(2*v_sig) z lower $(lz) units box
compute fieldcompute_eq fluidgroup chunk/atom bin/3d x lower 31.748021039364001439 y lower 2 z lower $(lz) units box
compute fieldcompute_eq fluidgroup chunk/atom bin/3d x lower 31.748021039364001439 y lower 2 z lower 31.748021039364001439 units box
fix fieldfix_eq fluidgroup ave/chunk 10 2000 20000 fieldcompute_eq density/mass norm none file lammps/fields_eq

variable ctrl_slab_no_particles equal count(controlslabgroup)

# Data dumping
thermo 100
thermo_style custom step v_ctrl_slab_no_particles v_fluid_width v_control_slab_density c_system_temp v_control_slab_press v_fluid_press #pe ke evdwl ecoul etotal
dump dump_eq all xyz 2000 lammps/traj_eq.xyz
timestep 0.005

fix cplfix all cpl/init
variable CPLSTEPS equal 1000000
fix cplfixconstrain all cpl/constrain
region cplforceregion block 3.9364e-08 31.748 55 60 3.9364e-08 31.748 units box
group cplforcegroup dynamic all region cplforceregion every 1
dynamic group cplforcegroup defined
fix cplforcefix cplforcegroup cpl/force region cplforceregion

print "# -- [EQUILIBRATION] -- #"
# -- [EQUILIBRATION] -- #
variable remaining_steps_eq equal 2000-0
run 2000
Step v_ctrl_slab_no_particles v_fluid_width v_control_slab_density c_system_temp v_control_slab_press v_fluid_press
0         8390    52.031155   0.83239343          1.1  -0.45526802  -0.29307159
Averages over the last 11 of 21 rows, steps 1000 to 2000:
v_ctrl_slab_no_particles v_fluid_width v_control_slab_density c_system_temp v_control_slab_press v_fluid_press
8421 51.9376 0.835469 0.547949 0.092802 0.0639967
Loop time of 31.7023 on 4 procs for 2000 steps with 47785 atoms

write_restart restart.equi.*
print "# -- [EQUILIBRATION] -- #"
# -- [EQUILIBRATION] -- #

# Unfix and reseting
unfix thermostat_fix
unfix fieldfix_eq
uncompute fieldcompute_eq
undump dump_eq
unfix nve_fix

print 'Fixed wall. Barostat off.'
Fixed wall. Barostat off.

# thermostating during production
fix thermostat_fix thermogroup langevin 1.1 1.1 1.0 68093
fix nve_fix all nve

compute temp_mod thermogroup temp/com

fix_modify thermostat_fix temp temp_mod

variable wall_velcom equal vcm(wallgroup,x)

velocity wallgroup set v_wall_velocity_value NULL NULL sum yes units box

# Binning cells dimensions
variable dx equal 2
variable dy equal 2
variable dz equal 2

# Time averaging
variable tstep_ratio equal 50
variable cfd_steps equal 1
variable write_interval equal v_tstep_ratio*v_cfd_steps

# Quantities computations
compute fieldcompute fluidgroup chunk/atom bin/1d y lower 2 units box

# Temperature profile computation
compute temp_fluid_y fluidgroup temp/partial 0 1 0 # Thermostat in y
compute temp_fluid_yz fluidgroup temp/partial 0 1 1 # Thermostat in y and z
compute chunk_temp_y fluidgroup temp/chunk fieldcompute temp bias temp_fluid_y adof 1.0
compute chunk_temp_yz fluidgroup temp/chunk fieldcompute temp bias temp_fluid_yz adof 2.0
compute chunk_temp_com fluidgroup temp/chunk fieldcompute temp com yes # Thermostat substracting com in 3 directions
fix fieldfix fluidgroup ave/chunk 1 50 50  fieldcompute density/mass vx vy vz c_stress_2[*] norm all file lammps/fields_nemd
fix fieldfix2 fluidgroup ave/time 1 50 50  c_chunk_temp_y[*][1] c_chunk_temp_yz[*][1] c_chunk_temp_com[*][1] file lammps/fields_temp mode vector
# Data dumping
thermo_style custom step v_wall_velcom v_control_slab_density c_fluid_temp  v_fluid_press pe ke evdwl ecoul etotal
thermo 100
dump dump_nemd all xyz 1000 lammps/traj_nemd.xyz
timestep 0.005

fix cplbcfix all cpl/bc
region cfdbcregion block 3.9364e-08 31.748 42.5 47.5 3.9364e-08 31.748 units box
compute cfdbccompute all chunk/atom bin/3d x lower 15.874 y lower 5 z lower 15.874 ids every region cfdbcregion units box  bound x 3.9364e-08 31.748 bound y 42.5 47.5 bound z 3.9364e-08 31.748
fix cfdbcfix all ave/chunk 1 1 50 cfdbccompute vx vy vz norm all file vels.debug
variable remaining_steps_nemd equal 1000000-v_restart_step_nemd
print "# --- [COUPLED] --- #"
# --- [COUPLED] --- #
run 1000000
Step v_wall_velcom v_control_slab_density c_fluid_temp v_fluid_press PotEng KinEng E_vdwl E_coul TotEng
2000 0.0054361677   0.83398083   0.54396804 -0.011332765    -7.796536   0.82863003    -7.796536            0    -6.967906
Averages over the last 11 of 21 rows, steps 3000 to 4000:
v_wall_velcom v_control_slab_density c_fluid_temp v_fluid_press PotEng KinEng E_vdwl E_coul TotEng
-0.00225462 0.823338 0.55402 -0.071533 -7.67099 0.903424 -7.67099 0 -6.76757
